21

O     -0.573637   -2.571582    0.071015
H     -0.760912   -2.577235   -0.824023
C     -0.605166   -1.182872    0.432796
H     -0.341547   -1.595338    1.750344
C      0.293088   -0.285513   -0.348945
C      0.328566    1.072033    0.499191
C      1.422738    2.092680    0.594600
C      1.287406    1.148760    1.834219
H      1.989479    0.197309    1.831136
H      1.155537    1.322466    2.687842
H      2.256748    2.224572    0.110237
H      1.097806    3.062454    0.810529
H     -0.746009    1.376411    0.571810
H      1.226946   -0.774197   -0.305919
C     -0.520773    0.005230   -1.537335
C     -0.574652   -0.853297   -2.392019
C     -0.080460   -1.851281   -3.397214
H      0.008681   -2.351432   -4.233502
H     -1.520748   -0.040522   -1.184665
H     -0.479812    0.890176   -1.732754
H     -1.577463   -0.822919    0.709997
